
---------- Begin Simulation Statistics ----------
simSeconds                                   0.000269                       # Number of seconds simulated (Second)
simTicks                                    269197000                       # Number of ticks simulated (Tick)
finalTick                                   269197000                       # Number of ticks from beginning of simulation (restored from checkpoints and never reset) (Tick)
simFreq                                  1000000000000                       # The number of ticks per simulated second ((Tick/Second))
hostSeconds                                      4.20                       # Real time elapsed on the host (Second)
hostTickRate                                 64127156                       # The number of ticks simulated per host second (ticks/s) ((Tick/Second))
hostMemory                                    1216856                       # Number of bytes of host memory used (Byte)
simInsts                                       423336                       # Number of instructions simulated (Count)
simOps                                         805829                       # Number of ops (including micro ops) simulated (Count)
hostInstRate                                   100843                       # Simulator instruction rate (inst/s) ((Count/Second))
hostOpRate                                     191957                       # Simulator op (including micro ops) rate (op/s) ((Count/Second))
system.clk_domain.clock                           500                       # Clock period in ticks (Tick)
system.cpu.numCycles                           538395                       # Number of cpu cycles simulated (Cycle)
system.cpu.numWorkItemsStarted                      0                       # Number of work items this cpu started (Count)
system.cpu.numWorkItemsCompleted                    0                       # Number of work items this cpu completed (Count)
system.cpu.instsAdded                         1093130                       # Number of instructions added to the IQ (excludes non-spec) (Count)
system.cpu.nonSpecInstsAdded                      208                       # Number of non-speculative instructions added to the IQ (Count)
system.cpu.instsIssued                        1006964                       # Number of instructions issued (Count)
system.cpu.squashedInstsIssued                   1502                       # Number of squashed instructions issued (Count)
system.cpu.squashedInstsExamined               287503                       # Number of squashed instructions iterated over during squash; mainly for profiling (Count)
system.cpu.squashedOperandsExamined            391345                       # Number of squashed operands that are examined and possibly removed from graph (Count)
system.cpu.squashedNonSpecRemoved                 136                       # Number of squashed non-spec instructions that were removed (Count)
system.cpu.numIssuedDist::samples              473830                       # Number of insts issued each cycle
system.cpu.numIssuedDist::mean               2.125159                       # Number of insts issued each cycle
system.cpu.numIssuedDist::stdev              2.517594                       # Number of insts issued each cycle
system.cpu.numIssuedDist::underflows                0      0.00%      0.00% # Number of insts issued each cycle
system.cpu.numIssuedDist::0                    224901     47.46%     47.46% # Number of insts issued each cycle
system.cpu.numIssuedDist::1                     31537      6.66%     54.12% # Number of insts issued each cycle
system.cpu.numIssuedDist::2                     40918      8.64%     62.76% # Number of insts issued each cycle
system.cpu.numIssuedDist::3                     35186      7.43%     70.18% # Number of insts issued each cycle
system.cpu.numIssuedDist::4                     38133      8.05%     78.23% # Number of insts issued each cycle
system.cpu.numIssuedDist::5                     32200      6.80%     85.03% # Number of insts issued each cycle
system.cpu.numIssuedDist::6                     36087      7.62%     92.64% # Number of insts issued each cycle
system.cpu.numIssuedDist::7                     20965      4.42%     97.07% # Number of insts issued each cycle
system.cpu.numIssuedDist::8                     13903      2.93%    100.00% # Number of insts issued each cycle
system.cpu.numIssuedDist::overflows                 0      0.00%    100.00% # Number of insts issued each cycle
system.cpu.numIssuedDist::min_value                 0                       # Number of insts issued each cycle
system.cpu.numIssuedDist::max_value                 8                       # Number of insts issued each cycle
system.cpu.numIssuedDist::total                473830                       # Number of insts issued each cycle
system.cpu.statFuBusy::No_OpClass                   0      0.00%      0.00% # attempts to use FU when none available (Count)
system.cpu.statFuBusy::IntAlu                   15680     80.17%     80.17% # attempts to use FU when none available (Count)
system.cpu.statFuBusy::IntMult                      0      0.00%     80.17% # attempts to use FU when none available (Count)
system.cpu.statFuBusy::IntDiv                       0      0.00%     80.17% # attempts to use FU when none available (Count)
system.cpu.statFuBusy::FloatAdd                     0      0.00%     80.17% # attempts to use FU when none available (Count)
system.cpu.statFuBusy::FloatCmp                     0      0.00%     80.17% # attempts to use FU when none available (Count)
system.cpu.statFuBusy::FloatCvt                     1      0.01%     80.17% # attempts to use FU when none available (Count)
system.cpu.statFuBusy::FloatMult                    0      0.00%     80.17% # attempts to use FU when none available (Count)
system.cpu.statFuBusy::FloatMultAcc                 0      0.00%     80.17% # attempts to use FU when none available (Count)
system.cpu.statFuBusy::FloatDiv                     0      0.00%     80.17% # attempts to use FU when none available (Count)
system.cpu.statFuBusy::FloatMisc                    0      0.00%     80.17% # attempts to use FU when none available (Count)
system.cpu.statFuBusy::FloatSqrt                    0      0.00%     80.17% # attempts to use FU when none available (Count)
system.cpu.statFuBusy::SimdAdd                      0      0.00%     80.17% # attempts to use FU when none available (Count)
system.cpu.statFuBusy::SimdAddAcc                   0      0.00%     80.17% # attempts to use FU when none available (Count)
system.cpu.statFuBusy::SimdAlu                     68      0.35%     80.52% # attempts to use FU when none available (Count)
system.cpu.statFuBusy::SimdCmp                      0      0.00%     80.52% # attempts to use FU when none available (Count)
system.cpu.statFuBusy::SimdCvt                     88      0.45%     80.97% # attempts to use FU when none available (Count)
system.cpu.statFuBusy::SimdMisc                     4      0.02%     80.99% # attempts to use FU when none available (Count)
system.cpu.statFuBusy::SimdMult                     0      0.00%     80.99% # attempts to use FU when none available (Count)
system.cpu.statFuBusy::SimdMultAcc                  0      0.00%     80.99% # attempts to use FU when none available (Count)
system.cpu.statFuBusy::SimdShift                    2      0.01%     81.00% # attempts to use FU when none available (Count)
system.cpu.statFuBusy::SimdShiftAcc                 0      0.00%     81.00% # attempts to use FU when none available (Count)
system.cpu.statFuBusy::SimdDiv                      0      0.00%     81.00% # attempts to use FU when none available (Count)
system.cpu.statFuBusy::SimdSqrt                     0      0.00%     81.00% # attempts to use FU when none available (Count)
system.cpu.statFuBusy::SimdFloatAdd                 0      0.00%     81.00% # attempts to use FU when none available (Count)
system.cpu.statFuBusy::SimdFloatAlu                 0      0.00%     81.00% # attempts to use FU when none available (Count)
system.cpu.statFuBusy::SimdFloatCmp                 0      0.00%     81.00% # attempts to use FU when none available (Count)
system.cpu.statFuBusy::SimdFloatCvt                 0      0.00%     81.00% # attempts to use FU when none available (Count)
system.cpu.statFuBusy::SimdFloatDiv                 0      0.00%     81.00% # attempts to use FU when none available (Count)
system.cpu.statFuBusy::SimdFloatMisc                0      0.00%     81.00% # attempts to use FU when none available (Count)
system.cpu.statFuBusy::SimdFloatMult                0      0.00%     81.00% # attempts to use FU when none available (Count)
system.cpu.statFuBusy::SimdFloatMultAcc             0      0.00%     81.00% # attempts to use FU when none available (Count)
system.cpu.statFuBusy::SimdFloatSqrt                0      0.00%     81.00% # attempts to use FU when none available (Count)
system.cpu.statFuBusy::SimdReduceAdd                0      0.00%     81.00% # attempts to use FU when none available (Count)
system.cpu.statFuBusy::SimdReduceAlu                0      0.00%     81.00% # attempts to use FU when none available (Count)
system.cpu.statFuBusy::SimdReduceCmp                0      0.00%     81.00% # attempts to use FU when none available (Count)
system.cpu.statFuBusy::SimdFloatReduceAdd            0      0.00%     81.00% # attempts to use FU when none available (Count)
system.cpu.statFuBusy::SimdFloatReduceCmp            0      0.00%     81.00% # attempts to use FU when none available (Count)
system.cpu.statFuBusy::SimdAes                      0      0.00%     81.00% # attempts to use FU when none available (Count)
system.cpu.statFuBusy::SimdAesMix                   0      0.00%     81.00% # attempts to use FU when none available (Count)
system.cpu.statFuBusy::SimdSha1Hash                 0      0.00%     81.00% # attempts to use FU when none available (Count)
system.cpu.statFuBusy::SimdSha1Hash2                0      0.00%     81.00% # attempts to use FU when none available (Count)
system.cpu.statFuBusy::SimdSha256Hash               0      0.00%     81.00% # attempts to use FU when none available (Count)
system.cpu.statFuBusy::SimdSha256Hash2              0      0.00%     81.00% # attempts to use FU when none available (Count)
system.cpu.statFuBusy::SimdShaSigma2                0      0.00%     81.00% # attempts to use FU when none available (Count)
system.cpu.statFuBusy::SimdShaSigma3                0      0.00%     81.00% # attempts to use FU when none available (Count)
system.cpu.statFuBusy::SimdPredAlu                  0      0.00%     81.00% # attempts to use FU when none available (Count)
system.cpu.statFuBusy::MemRead                   2483     12.69%     93.70% # attempts to use FU when none available (Count)
system.cpu.statFuBusy::MemWrite                   664      3.39%     97.09% # attempts to use FU when none available (Count)
system.cpu.statFuBusy::FloatMemRead               172      0.88%     97.97% # attempts to use FU when none available (Count)
system.cpu.statFuBusy::FloatMemWrite              397      2.03%    100.00% # attempts to use FU when none available (Count)
system.cpu.statFuBusy::IprAccess                    0      0.00%    100.00% # attempts to use FU when none available (Count)
system.cpu.statFuBusy::InstPrefetch                 0      0.00%    100.00% # attempts to use FU when none available (Count)
system.cpu.statIssuedInstType_0::No_OpClass         6919      0.69%      0.69% # Number of instructions issued per FU type, per thread (Count)
system.cpu.statIssuedInstType_0::IntAlu        776024     77.07%     77.75% # Number of instructions issued per FU type, per thread (Count)
system.cpu.statIssuedInstType_0::IntMult          788      0.08%     77.83% # Number of instructions issued per FU type, per thread (Count)
system.cpu.statIssuedInstType_0::IntDiv          5175      0.51%     78.35% # Number of instructions issued per FU type, per thread (Count)
system.cpu.statIssuedInstType_0::FloatAdd         3064      0.30%     78.65% # Number of instructions issued per FU type, per thread (Count)
system.cpu.statIssuedInstType_0::FloatCmp            0      0.00%     78.65% # Number of instructions issued per FU type, per thread (Count)
system.cpu.statIssuedInstType_0::FloatCvt          160      0.02%     78.67% # Number of instructions issued per FU type, per thread (Count)
system.cpu.statIssuedInstType_0::FloatMult            0      0.00%     78.67% # Number of instructions issued per FU type, per thread (Count)
system.cpu.statIssuedInstType_0::FloatMultAcc            0      0.00%     78.67% # Number of instructions issued per FU type, per thread (Count)
system.cpu.statIssuedInstType_0::FloatDiv            0      0.00%     78.67% # Number of instructions issued per FU type, per thread (Count)
system.cpu.statIssuedInstType_0::FloatMisc            0      0.00%     78.67% # Number of instructions issued per FU type, per thread (Count)
system.cpu.statIssuedInstType_0::FloatSqrt            0      0.00%     78.67% # Number of instructions issued per FU type, per thread (Count)
system.cpu.statIssuedInstType_0::SimdAdd         1681      0.17%     78.83% # Number of instructions issued per FU type, per thread (Count)
system.cpu.statIssuedInstType_0::SimdAddAcc            0      0.00%     78.83% # Number of instructions issued per FU type, per thread (Count)
system.cpu.statIssuedInstType_0::SimdAlu         3562      0.35%     79.19% # Number of instructions issued per FU type, per thread (Count)
system.cpu.statIssuedInstType_0::SimdCmp            0      0.00%     79.19% # Number of instructions issued per FU type, per thread (Count)
system.cpu.statIssuedInstType_0::SimdCvt         3701      0.37%     79.55% # Number of instructions issued per FU type, per thread (Count)
system.cpu.statIssuedInstType_0::SimdMisc         3025      0.30%     79.85% # Number of instructions issued per FU type, per thread (Count)
system.cpu.statIssuedInstType_0::SimdMult            0      0.00%     79.85% # Number of instructions issued per FU type, per thread (Count)
system.cpu.statIssuedInstType_0::SimdMultAcc            0      0.00%     79.85% # Number of instructions issued per FU type, per thread (Count)
system.cpu.statIssuedInstType_0::SimdShift         1126      0.11%     79.97% # Number of instructions issued per FU type, per thread (Count)
system.cpu.statIssuedInstType_0::SimdShiftAcc            0      0.00%     79.97% # Number of instructions issued per FU type, per thread (Count)
system.cpu.statIssuedInstType_0::SimdDiv            0      0.00%     79.97% # Number of instructions issued per FU type, per thread (Count)
system.cpu.statIssuedInstType_0::SimdSqrt            0      0.00%     79.97% # Number of instructions issued per FU type, per thread (Count)
system.cpu.statIssuedInstType_0::SimdFloatAdd            0      0.00%     79.97% # Number of instructions issued per FU type, per thread (Count)
system.cpu.statIssuedInstType_0::SimdFloatAlu            0      0.00%     79.97% # Number of instructions issued per FU type, per thread (Count)
system.cpu.statIssuedInstType_0::SimdFloatCmp            0      0.00%     79.97% # Number of instructions issued per FU type, per thread (Count)
system.cpu.statIssuedInstType_0::SimdFloatCvt          671      0.07%     80.03% # Number of instructions issued per FU type, per thread (Count)
system.cpu.statIssuedInstType_0::SimdFloatDiv            0      0.00%     80.03% # Number of instructions issued per FU type, per thread (Count)
system.cpu.statIssuedInstType_0::SimdFloatMisc            0      0.00%     80.03% # Number of instructions issued per FU type, per thread (Count)
system.cpu.statIssuedInstType_0::SimdFloatMult            0      0.00%     80.03% # Number of instructions issued per FU type, per thread (Count)
system.cpu.statIssuedInstType_0::SimdFloatMultAcc            0      0.00%     80.03% # Number of instructions issued per FU type, per thread (Count)
system.cpu.statIssuedInstType_0::SimdFloatSqrt            0      0.00%     80.03% # Number of instructions issued per FU type, per thread (Count)
system.cpu.statIssuedInstType_0::SimdReduceAdd            0      0.00%     80.03% # Number of instructions issued per FU type, per thread (Count)
system.cpu.statIssuedInstType_0::SimdReduceAlu            0      0.00%     80.03% # Number of instructions issued per FU type, per thread (Count)
system.cpu.statIssuedInstType_0::SimdReduceCmp            0      0.00%     80.03% # Number of instructions issued per FU type, per thread (Count)
system.cpu.statIssuedInstType_0::SimdFloatReduceAdd            0      0.00%     80.03% # Number of instructions issued per FU type, per thread (Count)
system.cpu.statIssuedInstType_0::SimdFloatReduceCmp            0      0.00%     80.03% # Number of instructions issued per FU type, per thread (Count)
system.cpu.statIssuedInstType_0::SimdAes            0      0.00%     80.03% # Number of instructions issued per FU type, per thread (Count)
system.cpu.statIssuedInstType_0::SimdAesMix            0      0.00%     80.03% # Number of instructions issued per FU type, per thread (Count)
system.cpu.statIssuedInstType_0::SimdSha1Hash            0      0.00%     80.03% # Number of instructions issued per FU type, per thread (Count)
system.cpu.statIssuedInstType_0::SimdSha1Hash2            0      0.00%     80.03% # Number of instructions issued per FU type, per thread (Count)
system.cpu.statIssuedInstType_0::SimdSha256Hash            0      0.00%     80.03% # Number of instructions issued per FU type, per thread (Count)
system.cpu.statIssuedInstType_0::SimdSha256Hash2            0      0.00%     80.03% # Number of instructions issued per FU type, per thread (Count)
system.cpu.statIssuedInstType_0::SimdShaSigma2            0      0.00%     80.03% # Number of instructions issued per FU type, per thread (Count)
system.cpu.statIssuedInstType_0::SimdShaSigma3            0      0.00%     80.03% # Number of instructions issued per FU type, per thread (Count)
system.cpu.statIssuedInstType_0::SimdPredAlu            0      0.00%     80.03% # Number of instructions issued per FU type, per thread (Count)
system.cpu.statIssuedInstType_0::MemRead       136287     13.53%     93.57% # Number of instructions issued per FU type, per thread (Count)
system.cpu.statIssuedInstType_0::MemWrite        52519      5.22%     98.78% # Number of instructions issued per FU type, per thread (Count)
system.cpu.statIssuedInstType_0::FloatMemRead         8140      0.81%     99.59% # Number of instructions issued per FU type, per thread (Count)
system.cpu.statIssuedInstType_0::FloatMemWrite         4122      0.41%    100.00% # Number of instructions issued per FU type, per thread (Count)
system.cpu.statIssuedInstType_0::IprAccess            0      0.00%    100.00% # Number of instructions issued per FU type, per thread (Count)
system.cpu.statIssuedInstType_0::InstPrefetch            0      0.00%    100.00% # Number of instructions issued per FU type, per thread (Count)
system.cpu.statIssuedInstType_0::total        1006964                       # Number of instructions issued per FU type, per thread (Count)
system.cpu.issueRate                         1.870307                       # Inst issue rate ((Count/Cycle))
system.cpu.fuBusy                               19559                       # FU busy when requested (Count)
system.cpu.fuBusyRate                        0.019424                       # FU busy rate (busy events/executed inst) ((Count/Count))
system.cpu.intInstQueueReads                  2447217                       # Number of integer instruction queue reads (Count)
system.cpu.intInstQueueWrites                 1331482                       # Number of integer instruction queue writes (Count)
system.cpu.intInstQueueWakeupAccesses          951958                       # Number of integer instruction queue wakeup accesses (Count)
system.cpu.fpInstQueueReads                     61602                       # Number of floating instruction queue reads (Count)
system.cpu.fpInstQueueWrites                    49496                       # Number of floating instruction queue writes (Count)
system.cpu.fpInstQueueWakeupAccesses            28588                       # Number of floating instruction queue wakeup accesses (Count)
system.cpu.vecInstQueueReads                        0                       # Number of vector instruction queue reads (Count)
system.cpu.vecInstQueueWrites                       0                       # Number of vector instruction queue writes (Count)
system.cpu.vecInstQueueWakeupAccesses               0                       # Number of vector instruction queue wakeup accesses (Count)
system.cpu.intAluAccesses                      988506                       # Number of integer alu accesses (Count)
system.cpu.fpAluAccesses                        31098                       # Number of floating point alu accesses (Count)
system.cpu.vecAluAccesses                           0                       # Number of vector alu accesses (Count)
system.cpu.idleCycles                               0                       # Number of cycles IEW is idle (Cycle)
system.cpu.squashCycles                          6935                       # Number of cycles IEW is squashing (Cycle)
system.cpu.blockCycles                          99541                       # Number of cycles IEW is blocking (Cycle)
system.cpu.unblockCycles                         5385                       # Number of cycles IEW is unblocking (Cycle)
system.cpu.dispatchedInsts                    1093338                       # Number of instructions dispatched to IQ (Count)
system.cpu.dispSquashedInsts                      999                       # Number of squashed instructions skipped by dispatch (Count)
system.cpu.dispLoadInsts                       151409                       # Number of dispatched load instructions (Count)
system.cpu.dispStoreInsts                       59935                       # Number of dispatched store instructions (Count)
system.cpu.dispNonSpecInsts                       108                       # Number of dispatched non-speculative instructions (Count)
system.cpu.iqFullEvents                           955                       # Number of times the IQ has become full, causing a stall (Count)
system.cpu.lsqFullEvents                         3955                       # Number of times the LSQ has become full, causing a stall (Count)
system.cpu.memOrderViolationEvents                199                       # Number of memory order violations (Count)
system.cpu.predictedTakenIncorrect               2340                       # Number of branches that were predicted taken incorrectly (Count)
system.cpu.predictedNotTakenIncorrect            5301                       # Number of branches that were predicted not taken incorrectly (Count)
system.cpu.branchMispredicts                     7641                       # Number of branch mispredicts detected at execute (Count)
system.cpu.numInsts                            993054                       # Number of executed instructions (Count)
system.cpu.numLoadInsts                        141419                       # Number of load instructions executed (Count)
system.cpu.numSquashedInsts                     13910                       # Number of squashed instructions skipped in execute (Count)
system.cpu.numSwp                                   0                       # Number of swp insts executed (Count)
system.cpu.numNop                                   0                       # Number of nop insts executed (Count)
system.cpu.numRefs                             197261                       # Number of memory reference insts executed (Count)
system.cpu.numBranches                         104746                       # Number of branches executed (Count)
system.cpu.numStoreInsts                        55842                       # Number of stores executed (Count)
system.cpu.numRate                           1.844471                       # Inst execution rate ((Count/Cycle))
system.cpu.instsToCommit                       985253                       # Cumulative count of insts sent to commit (Count)
system.cpu.writebackCount                      980546                       # Cumulative count of insts written-back (Count)
system.cpu.producerInst                        737414                       # Number of instructions producing a value (Count)
system.cpu.consumerInst                       1210896                       # Number of instructions consuming a value (Count)
system.cpu.wbRate                            1.821239                       # Insts written-back per cycle ((Count/Cycle))
system.cpu.wbFanout                          0.608982                       # Average fanout of values written-back ((Count/Count))
system.cpu.timesIdled                             809                       # Number of times that the entire CPU went into an idle state and unscheduled itself (Count)
system.cpu.idleCycles                           64565                       # Total number of cycles that the CPU has spent unscheduled due to idling (Cycle)
system.cpu.committedInsts                      423336                       # Number of Instructions Simulated (Count)
system.cpu.committedOps                        805829                       # Number of Ops (including micro ops) Simulated (Count)
system.cpu.cpi                               1.271791                       # CPI: Cycles Per Instruction ((Cycle/Count))
system.cpu.totalCpi                          1.271791                       # CPI: Total CPI of All Threads ((Cycle/Count))
system.cpu.ipc                               0.786293                       # IPC: Instructions Per Cycle ((Count/Cycle))
system.cpu.totalIpc                          0.786293                       # IPC: Total IPC of All Threads ((Count/Cycle))
system.cpu.intRegfileReads                    1423950                       # Number of integer regfile reads (Count)
system.cpu.intRegfileWrites                    808174                       # Number of integer regfile writes (Count)
system.cpu.fpRegfileReads                       37056                       # Number of floating regfile reads (Count)
system.cpu.fpRegfileWrites                      22244                       # Number of floating regfile writes (Count)
system.cpu.ccRegfileReads                      535157                       # number of cc regfile reads (Count)
system.cpu.ccRegfileWrites                     325599                       # number of cc regfile writes (Count)
system.cpu.miscRegfileReads                    420014                       # number of misc regfile reads (Count)
system.cpu.miscRegfileWrites                       54                       # number of misc regfile writes (Count)
system.cpu.MemDepUnit__0.insertedLoads         151409                       # Number of loads inserted to the mem dependence unit. (Count)
system.cpu.MemDepUnit__0.insertedStores         59935                       # Number of stores inserted to the mem dependence unit. (Count)
system.cpu.MemDepUnit__0.conflictingLoads         8709                       # Number of conflicting loads. (Count)
system.cpu.MemDepUnit__0.conflictingStores         4192                       # Number of conflicting stores. (Count)
system.cpu.MemDepUnit__1.insertedLoads              0                       # Number of loads inserted to the mem dependence unit. (Count)
system.cpu.MemDepUnit__1.insertedStores             0                       # Number of stores inserted to the mem dependence unit. (Count)
system.cpu.MemDepUnit__1.conflictingLoads            0                       # Number of conflicting loads. (Count)
system.cpu.MemDepUnit__1.conflictingStores            0                       # Number of conflicting stores. (Count)
system.cpu.MemDepUnit__2.insertedLoads              0                       # Number of loads inserted to the mem dependence unit. (Count)
system.cpu.MemDepUnit__2.insertedStores             0                       # Number of stores inserted to the mem dependence unit. (Count)
system.cpu.MemDepUnit__2.conflictingLoads            0                       # Number of conflicting loads. (Count)
system.cpu.MemDepUnit__2.conflictingStores            0                       # Number of conflicting stores. (Count)
system.cpu.MemDepUnit__3.insertedLoads              0                       # Number of loads inserted to the mem dependence unit. (Count)
system.cpu.MemDepUnit__3.insertedStores             0                       # Number of stores inserted to the mem dependence unit. (Count)
system.cpu.MemDepUnit__3.conflictingLoads            0                       # Number of conflicting loads. (Count)
system.cpu.MemDepUnit__3.conflictingStores            0                       # Number of conflicting stores. (Count)
system.cpu.branchPred.lookups                  141178                       # Number of BP lookups (Count)
system.cpu.branchPred.condPredicted            116103                       # Number of conditional branches predicted (Count)
system.cpu.branchPred.condIncorrect              6949                       # Number of conditional branches incorrect (Count)
system.cpu.branchPred.BTBLookups                60897                       # Number of BTB lookups (Count)
system.cpu.branchPred.BTBHits                   58520                       # Number of BTB hits (Count)
system.cpu.branchPred.BTBHitRatio            0.960967                       # BTB Hit Ratio (Ratio)
system.cpu.branchPred.RASUsed                    6632                       # Number of times the RAS was used to get a target. (Count)
system.cpu.branchPred.RASIncorrect                  6                       # Number of incorrect RAS predictions. (Count)
system.cpu.branchPred.indirectLookups            3198                       # Number of indirect predictor lookups. (Count)
system.cpu.branchPred.indirectHits               1798                       # Number of indirect target hits. (Count)
system.cpu.branchPred.indirectMisses             1400                       # Number of indirect misses. (Count)
system.cpu.branchPred.indirectMispredicted          394                       # Number of mispredicted indirect branches. (Count)
system.cpu.commit.commitSquashedInsts          283598                       # The number of squashed insts skipped by commit (Count)
system.cpu.commit.commitNonSpecStalls              72                       # The number of times commit has been forced to stall to communicate backwards (Count)
system.cpu.commit.branchMispredicts              6589                       # The number of times a branch was mispredicted (Count)
system.cpu.commit.numCommittedDist::samples       432245                       # Number of insts commited each cycle
system.cpu.commit.numCommittedDist::mean     1.864288                       # Number of insts commited each cycle
system.cpu.commit.numCommittedDist::stdev     2.773666                       # Number of insts commited each cycle
system.cpu.commit.numCommittedDist::underflows            0      0.00%      0.00% # Number of insts commited each cycle
system.cpu.commit.numCommittedDist::0          241379     55.84%     55.84% # Number of insts commited each cycle
system.cpu.commit.numCommittedDist::1           40865      9.45%     65.30% # Number of insts commited each cycle
system.cpu.commit.numCommittedDist::2           23741      5.49%     70.79% # Number of insts commited each cycle
system.cpu.commit.numCommittedDist::3           38603      8.93%     79.72% # Number of insts commited each cycle
system.cpu.commit.numCommittedDist::4           13392      3.10%     82.82% # Number of insts commited each cycle
system.cpu.commit.numCommittedDist::5            9301      2.15%     84.97% # Number of insts commited each cycle
system.cpu.commit.numCommittedDist::6            5789      1.34%     86.31% # Number of insts commited each cycle
system.cpu.commit.numCommittedDist::7            6534      1.51%     87.82% # Number of insts commited each cycle
system.cpu.commit.numCommittedDist::8           52641     12.18%    100.00% # Number of insts commited each cycle
system.cpu.commit.numCommittedDist::overflows            0      0.00%    100.00% # Number of insts commited each cycle
system.cpu.commit.numCommittedDist::min_value            0                       # Number of insts commited each cycle
system.cpu.commit.numCommittedDist::max_value            8                       # Number of insts commited each cycle
system.cpu.commit.numCommittedDist::total       432245                       # Number of insts commited each cycle
system.cpu.commit.instsCommitted               423336                       # Number of instructions committed (Count)
system.cpu.commit.opsCommitted                 805829                       # Number of ops (including micro ops) committed (Count)
system.cpu.commit.memRefs                      162174                       # Number of memory references committed (Count)
system.cpu.commit.loads                        111301                       # Number of loads committed (Count)
system.cpu.commit.amos                              0                       # Number of atomic instructions committed (Count)
system.cpu.commit.membars                          12                       # Number of memory barriers committed (Count)
system.cpu.commit.branches                      92209                       # Number of branches committed (Count)
system.cpu.commit.vectorInstructions                0                       # Number of committed Vector instructions. (Count)
system.cpu.commit.floating                      21666                       # Number of committed floating point instructions. (Count)
system.cpu.commit.integer                      790188                       # Number of committed integer instructions. (Count)
system.cpu.commit.functionCalls                  5473                       # Number of function calls committed. (Count)
system.cpu.commit.committedInstType_0::No_OpClass         4542      0.56%      0.56% # Class of committed instruction (Count)
system.cpu.commit.committedInstType_0::IntAlu       621465     77.12%     77.68% # Class of committed instruction (Count)
system.cpu.commit.committedInstType_0::IntMult          741      0.09%     77.78% # Class of committed instruction (Count)
system.cpu.commit.committedInstType_0::IntDiv         4968      0.62%     78.39% # Class of committed instruction (Count)
system.cpu.commit.committedInstType_0::FloatAdd         1589      0.20%     78.59% # Class of committed instruction (Count)
system.cpu.commit.committedInstType_0::FloatCmp            0      0.00%     78.59% # Class of committed instruction (Count)
system.cpu.commit.committedInstType_0::FloatCvt           96      0.01%     78.60% # Class of committed instruction (Count)
system.cpu.commit.committedInstType_0::FloatMult            0      0.00%     78.60% # Class of committed instruction (Count)
system.cpu.commit.committedInstType_0::FloatMultAcc            0      0.00%     78.60% # Class of committed instruction (Count)
system.cpu.commit.committedInstType_0::FloatDiv            0      0.00%     78.60% # Class of committed instruction (Count)
system.cpu.commit.committedInstType_0::FloatMisc            0      0.00%     78.60% # Class of committed instruction (Count)
system.cpu.commit.committedInstType_0::FloatSqrt            0      0.00%     78.60% # Class of committed instruction (Count)
system.cpu.commit.committedInstType_0::SimdAdd         1344      0.17%     78.77% # Class of committed instruction (Count)
system.cpu.commit.committedInstType_0::SimdAddAcc            0      0.00%     78.77% # Class of committed instruction (Count)
system.cpu.commit.committedInstType_0::SimdAlu         2452      0.30%     79.07% # Class of committed instruction (Count)
system.cpu.commit.committedInstType_0::SimdCmp            0      0.00%     79.07% # Class of committed instruction (Count)
system.cpu.commit.committedInstType_0::SimdCvt         2634      0.33%     79.40% # Class of committed instruction (Count)
system.cpu.commit.committedInstType_0::SimdMisc         2663      0.33%     79.73% # Class of committed instruction (Count)
system.cpu.commit.committedInstType_0::SimdMult            0      0.00%     79.73% # Class of committed instruction (Count)
system.cpu.commit.committedInstType_0::SimdMultAcc            0      0.00%     79.73% # Class of committed instruction (Count)
system.cpu.commit.committedInstType_0::SimdShift          538      0.07%     79.80% # Class of committed instruction (Count)
system.cpu.commit.committedInstType_0::SimdShiftAcc            0      0.00%     79.80% # Class of committed instruction (Count)
system.cpu.commit.committedInstType_0::SimdDiv            0      0.00%     79.80% # Class of committed instruction (Count)
system.cpu.commit.committedInstType_0::SimdSqrt            0      0.00%     79.80% # Class of committed instruction (Count)
system.cpu.commit.committedInstType_0::SimdFloatAdd            0      0.00%     79.80% # Class of committed instruction (Count)
system.cpu.commit.committedInstType_0::SimdFloatAlu            0      0.00%     79.80% # Class of committed instruction (Count)
system.cpu.commit.committedInstType_0::SimdFloatCmp            0      0.00%     79.80% # Class of committed instruction (Count)
system.cpu.commit.committedInstType_0::SimdFloatCvt          623      0.08%     79.87% # Class of committed instruction (Count)
system.cpu.commit.committedInstType_0::SimdFloatDiv            0      0.00%     79.87% # Class of committed instruction (Count)
system.cpu.commit.committedInstType_0::SimdFloatMisc            0      0.00%     79.87% # Class of committed instruction (Count)
system.cpu.commit.committedInstType_0::SimdFloatMult            0      0.00%     79.87% # Class of committed instruction (Count)
system.cpu.commit.committedInstType_0::SimdFloatMultAcc            0      0.00%     79.87% # Class of committed instruction (Count)
system.cpu.commit.committedInstType_0::SimdFloatSqrt            0      0.00%     79.87% # Class of committed instruction (Count)
system.cpu.commit.committedInstType_0::SimdReduceAdd            0      0.00%     79.87% # Class of committed instruction (Count)
system.cpu.commit.committedInstType_0::SimdReduceAlu            0      0.00%     79.87% # Class of committed instruction (Count)
system.cpu.commit.committedInstType_0::SimdReduceCmp            0      0.00%     79.87% # Class of committed instruction (Count)
system.cpu.commit.committedInstType_0::SimdFloatReduceAdd            0      0.00%     79.87% # Class of committed instruction (Count)
system.cpu.commit.committedInstType_0::SimdFloatReduceCmp            0      0.00%     79.87% # Class of committed instruction (Count)
system.cpu.commit.committedInstType_0::SimdAes            0      0.00%     79.87% # Class of committed instruction (Count)
system.cpu.commit.committedInstType_0::SimdAesMix            0      0.00%     79.87% # Class of committed instruction (Count)
system.cpu.commit.committedInstType_0::SimdSha1Hash            0      0.00%     79.87% # Class of committed instruction (Count)
system.cpu.commit.committedInstType_0::SimdSha1Hash2            0      0.00%     79.87% # Class of committed instruction (Count)
system.cpu.commit.committedInstType_0::SimdSha256Hash            0      0.00%     79.87% # Class of committed instruction (Count)
system.cpu.commit.committedInstType_0::SimdSha256Hash2            0      0.00%     79.87% # Class of committed instruction (Count)
system.cpu.commit.committedInstType_0::SimdShaSigma2            0      0.00%     79.87% # Class of committed instruction (Count)
system.cpu.commit.committedInstType_0::SimdShaSigma3            0      0.00%     79.87% # Class of committed instruction (Count)
system.cpu.commit.committedInstType_0::SimdPredAlu            0      0.00%     79.87% # Class of committed instruction (Count)
system.cpu.commit.committedInstType_0::MemRead       106189     13.18%     93.05% # Class of committed instruction (Count)
system.cpu.commit.committedInstType_0::MemWrite        47300      5.87%     98.92% # Class of committed instruction (Count)
system.cpu.commit.committedInstType_0::FloatMemRead         5112      0.63%     99.56% # Class of committed instruction (Count)
system.cpu.commit.committedInstType_0::FloatMemWrite         3573      0.44%    100.00% # Class of committed instruction (Count)
system.cpu.commit.committedInstType_0::IprAccess            0      0.00%    100.00% # Class of committed instruction (Count)
system.cpu.commit.committedInstType_0::InstPrefetch            0      0.00%    100.00% # Class of committed instruction (Count)
system.cpu.commit.committedInstType_0::total       805829                       # Class of committed instruction (Count)
system.cpu.commit.commitEligibleSamples         52641                       # number cycles where commit BW limit reached (Cycle)
system.cpu.dcache.demandHits::cpu.data         154892                       # number of demand (read+write) hits (Count)
system.cpu.dcache.demandHits::total            154892                       # number of demand (read+write) hits (Count)
system.cpu.dcache.overallHits::cpu.data        154892                       # number of overall hits (Count)
system.cpu.dcache.overallHits::total           154892                       # number of overall hits (Count)
system.cpu.dcache.demandMisses::cpu.data        15559                       # number of demand (read+write) misses (Count)
system.cpu.dcache.demandMisses::total           15559                       # number of demand (read+write) misses (Count)
system.cpu.dcache.overallMisses::cpu.data        15559                       # number of overall misses (Count)
system.cpu.dcache.overallMisses::total          15559                       # number of overall misses (Count)
system.cpu.dcache.demandMissLatency::cpu.data    682295500                       # number of demand (read+write) miss ticks (Tick)
system.cpu.dcache.demandMissLatency::total    682295500                       # number of demand (read+write) miss ticks (Tick)
system.cpu.dcache.overallMissLatency::cpu.data    682295500                       # number of overall miss ticks (Tick)
system.cpu.dcache.overallMissLatency::total    682295500                       # number of overall miss ticks (Tick)
system.cpu.dcache.demandAccesses::cpu.data       170451                       # number of demand (read+write) accesses (Count)
system.cpu.dcache.demandAccesses::total        170451                       # number of demand (read+write) accesses (Count)
system.cpu.dcache.overallAccesses::cpu.data       170451                       # number of overall (read+write) accesses (Count)
system.cpu.dcache.overallAccesses::total       170451                       # number of overall (read+write) accesses (Count)
system.cpu.dcache.demandMissRate::cpu.data     0.091281                       # miss rate for demand accesses (Ratio)
system.cpu.dcache.demandMissRate::total      0.091281                       # miss rate for demand accesses (Ratio)
system.cpu.dcache.overallMissRate::cpu.data     0.091281                       # miss rate for overall accesses (Ratio)
system.cpu.dcache.overallMissRate::total     0.091281                       # miss rate for overall accesses (Ratio)
system.cpu.dcache.demandAvgMissLatency::cpu.data 43852.143454                       # average overall miss latency ((Cycle/Count))
system.cpu.dcache.demandAvgMissLatency::total 43852.143454                       # average overall miss latency ((Cycle/Count))
system.cpu.dcache.overallAvgMissLatency::cpu.data 43852.143454                       # average overall miss latency ((Cycle/Count))
system.cpu.dcache.overallAvgMissLatency::total 43852.143454                       # average overall miss latency ((Cycle/Count))
system.cpu.dcache.blockedCycles::no_mshrs        13117                       # number of cycles access was blocked (Cycle)
system.cpu.dcache.blockedCycles::no_targets           53                       # number of cycles access was blocked (Cycle)
system.cpu.dcache.blockedCauses::no_mshrs          354                       # number of times access was blocked (Count)
system.cpu.dcache.blockedCauses::no_targets            2                       # number of times access was blocked (Count)
system.cpu.dcache.avgBlocked::no_mshrs      37.053672                       # average number of cycles each access was blocked ((Cycle/Count))
system.cpu.dcache.avgBlocked::no_targets    26.500000                       # average number of cycles each access was blocked ((Cycle/Count))
system.cpu.dcache.writebacks::writebacks          616                       # number of writebacks (Count)
system.cpu.dcache.writebacks::total               616                       # number of writebacks (Count)
system.cpu.dcache.demandMshrHits::cpu.data        12190                       # number of demand (read+write) MSHR hits (Count)
system.cpu.dcache.demandMshrHits::total         12190                       # number of demand (read+write) MSHR hits (Count)
system.cpu.dcache.overallMshrHits::cpu.data        12190                       # number of overall MSHR hits (Count)
system.cpu.dcache.overallMshrHits::total        12190                       # number of overall MSHR hits (Count)
system.cpu.dcache.demandMshrMisses::cpu.data         3369                       # number of demand (read+write) MSHR misses (Count)
system.cpu.dcache.demandMshrMisses::total         3369                       # number of demand (read+write) MSHR misses (Count)
system.cpu.dcache.overallMshrMisses::cpu.data         3369                       # number of overall MSHR misses (Count)
system.cpu.dcache.overallMshrMisses::total         3369                       # number of overall MSHR misses (Count)
system.cpu.dcache.demandMshrMissLatency::cpu.data    181758000                       # number of demand (read+write) MSHR miss ticks (Tick)
system.cpu.dcache.demandMshrMissLatency::total    181758000                       # number of demand (read+write) MSHR miss ticks (Tick)
system.cpu.dcache.overallMshrMissLatency::cpu.data    181758000                       # number of overall MSHR miss ticks (Tick)
system.cpu.dcache.overallMshrMissLatency::total    181758000                       # number of overall MSHR miss ticks (Tick)
system.cpu.dcache.demandMshrMissRate::cpu.data     0.019765                       # mshr miss ratio for demand accesses (Ratio)
system.cpu.dcache.demandMshrMissRate::total     0.019765                       # mshr miss ratio for demand accesses (Ratio)
system.cpu.dcache.overallMshrMissRate::cpu.data     0.019765                       # mshr miss ratio for overall accesses (Ratio)
system.cpu.dcache.overallMshrMissRate::total     0.019765                       # mshr miss ratio for overall accesses (Ratio)
system.cpu.dcache.demandAvgMshrMissLatency::cpu.data 53950.133571                       # average overall mshr miss latency ((Cycle/Count))
system.cpu.dcache.demandAvgMshrMissLatency::total 53950.133571                       # average overall mshr miss latency ((Cycle/Count))
system.cpu.dcache.overallAvgMshrMissLatency::cpu.data 53950.133571                       # average overall mshr miss latency ((Cycle/Count))
system.cpu.dcache.overallAvgMshrMissLatency::total 53950.133571                       # average overall mshr miss latency ((Cycle/Count))
system.cpu.dcache.replacements                   2345                       # number of replacements (Count)
system.cpu.dcache.ReadReq.hits::cpu.data       104699                       # number of ReadReq hits (Count)
system.cpu.dcache.ReadReq.hits::total          104699                       # number of ReadReq hits (Count)
system.cpu.dcache.ReadReq.misses::cpu.data        14876                       # number of ReadReq misses (Count)
system.cpu.dcache.ReadReq.misses::total         14876                       # number of ReadReq misses (Count)
system.cpu.dcache.ReadReq.missLatency::cpu.data    646208500                       # number of ReadReq miss ticks (Tick)
system.cpu.dcache.ReadReq.missLatency::total    646208500                       # number of ReadReq miss ticks (Tick)
system.cpu.dcache.ReadReq.accesses::cpu.data       119575                       # number of ReadReq accesses(hits+misses) (Count)
system.cpu.dcache.ReadReq.accesses::total       119575                       # number of ReadReq accesses(hits+misses) (Count)
system.cpu.dcache.ReadReq.missRate::cpu.data     0.124407                       # miss rate for ReadReq accesses (Ratio)
system.cpu.dcache.ReadReq.missRate::total     0.124407                       # miss rate for ReadReq accesses (Ratio)
system.cpu.dcache.ReadReq.avgMissLatency::cpu.data 43439.667921                       # average ReadReq miss latency ((Tick/Count))
system.cpu.dcache.ReadReq.avgMissLatency::total 43439.667921                       # average ReadReq miss latency ((Tick/Count))
system.cpu.dcache.ReadReq.mshrHits::cpu.data        12188                       # number of ReadReq MSHR hits (Count)
system.cpu.dcache.ReadReq.mshrHits::total        12188                       # number of ReadReq MSHR hits (Count)
system.cpu.dcache.ReadReq.mshrMisses::cpu.data         2688                       # number of ReadReq MSHR misses (Count)
system.cpu.dcache.ReadReq.mshrMisses::total         2688                       # number of ReadReq MSHR misses (Count)
system.cpu.dcache.ReadReq.mshrMissLatency::cpu.data    146446000                       # number of ReadReq MSHR miss ticks (Tick)
system.cpu.dcache.ReadReq.mshrMissLatency::total    146446000                       # number of ReadReq MSHR miss ticks (Tick)
system.cpu.dcache.ReadReq.mshrMissRate::cpu.data     0.022480                       # mshr miss rate for ReadReq accesses (Ratio)
system.cpu.dcache.ReadReq.mshrMissRate::total     0.022480                       # mshr miss rate for ReadReq accesses (Ratio)
system.cpu.dcache.ReadReq.avgMshrMissLatency::cpu.data 54481.398810                       # average ReadReq mshr miss latency ((Tick/Count))
system.cpu.dcache.ReadReq.avgMshrMissLatency::total 54481.398810                       # average ReadReq mshr miss latency ((Tick/Count))
system.cpu.dcache.WriteReq.hits::cpu.data        50193                       # number of WriteReq hits (Count)
system.cpu.dcache.WriteReq.hits::total          50193                       # number of WriteReq hits (Count)
system.cpu.dcache.WriteReq.misses::cpu.data          683                       # number of WriteReq misses (Count)
system.cpu.dcache.WriteReq.misses::total          683                       # number of WriteReq misses (Count)
system.cpu.dcache.WriteReq.missLatency::cpu.data     36087000                       # number of WriteReq miss ticks (Tick)
system.cpu.dcache.WriteReq.missLatency::total     36087000                       # number of WriteReq miss ticks (Tick)
system.cpu.dcache.WriteReq.accesses::cpu.data        50876                       # number of WriteReq accesses(hits+misses) (Count)
system.cpu.dcache.WriteReq.accesses::total        50876                       # number of WriteReq accesses(hits+misses) (Count)
system.cpu.dcache.WriteReq.missRate::cpu.data     0.013425                       # miss rate for WriteReq accesses (Ratio)
system.cpu.dcache.WriteReq.missRate::total     0.013425                       # miss rate for WriteReq accesses (Ratio)
system.cpu.dcache.WriteReq.avgMissLatency::cpu.data 52836.017570                       # average WriteReq miss latency ((Tick/Count))
system.cpu.dcache.WriteReq.avgMissLatency::total 52836.017570                       # average WriteReq miss latency ((Tick/Count))
system.cpu.dcache.WriteReq.mshrHits::cpu.data            2                       # number of WriteReq MSHR hits (Count)
system.cpu.dcache.WriteReq.mshrHits::total            2                       # number of WriteReq MSHR hits (Count)
system.cpu.dcache.WriteReq.mshrMisses::cpu.data          681                       # number of WriteReq MSHR misses (Count)
system.cpu.dcache.WriteReq.mshrMisses::total          681                       # number of WriteReq MSHR misses (Count)
system.cpu.dcache.WriteReq.mshrMissLatency::cpu.data     35312000                       # number of WriteReq MSHR miss ticks (Tick)
system.cpu.dcache.WriteReq.mshrMissLatency::total     35312000                       # number of WriteReq MSHR miss ticks (Tick)
system.cpu.dcache.WriteReq.mshrMissRate::cpu.data     0.013385                       # mshr miss rate for WriteReq accesses (Ratio)
system.cpu.dcache.WriteReq.mshrMissRate::total     0.013385                       # mshr miss rate for WriteReq accesses (Ratio)
system.cpu.dcache.WriteReq.avgMshrMissLatency::cpu.data 51853.157122                       # average WriteReq mshr miss latency ((Tick/Count))
system.cpu.dcache.WriteReq.avgMshrMissLatency::total 51853.157122                       # average WriteReq mshr miss latency ((Tick/Count))
system.cpu.dcache.power_state.pwrStateResidencyTicks::UNDEFINED    269197000                       # Cumulative time (in ticks) in various power states (Tick)
system.cpu.dcache.tags.tagsInUse           896.262093                       # Average ticks per tags in use ((Tick/Count))
system.cpu.dcache.tags.totalRefs               158261                       # Total number of references to valid blocks. (Count)
system.cpu.dcache.tags.sampledRefs               3369                       # Sample count of references to valid blocks. (Count)
system.cpu.dcache.tags.avgRefs              46.975660                       # Average number of references to valid blocks. ((Count/Count))
system.cpu.dcache.tags.warmupTick              136500                       # The tick when the warmup percentage was hit. (Tick)
system.cpu.dcache.tags.occupancies::cpu.data   896.262093                       # Average occupied blocks per tick, per requestor ((Count/Tick))
system.cpu.dcache.tags.avgOccs::cpu.data     0.875256                       # Average percentage of cache occupancy ((Ratio/Tick))
system.cpu.dcache.tags.avgOccs::total        0.875256                       # Average percentage of cache occupancy ((Ratio/Tick))
system.cpu.dcache.tags.occupanciesTaskId::1024         1024                       # Occupied blocks per task id (Count)
system.cpu.dcache.tags.ageTaskId_1024::0           56                       # Occupied blocks per task id, per block age (Count)
system.cpu.dcache.tags.ageTaskId_1024::1          674                       # Occupied blocks per task id, per block age (Count)
system.cpu.dcache.tags.ageTaskId_1024::2          294                       # Occupied blocks per task id, per block age (Count)
system.cpu.dcache.tags.ratioOccsTaskId::1024            1                       # Ratio of occupied blocks and all blocks, per task id (Ratio)
system.cpu.dcache.tags.tagAccesses            1366977                       # Number of tag accesses (Count)
system.cpu.dcache.tags.dataAccesses           1366977                       # Number of data accesses (Count)
system.cpu.dcache.tags.power_state.pwrStateResidencyTicks::UNDEFINED    269197000                       # Cumulative time (in ticks) in various power states (Tick)
system.cpu.decode.idleCycles                   113410                       # Number of cycles decode is idle (Cycle)
system.cpu.decode.blockedCycles                177739                       # Number of cycles decode is blocked (Cycle)
system.cpu.decode.runCycles                    161359                       # Number of cycles decode is running (Cycle)
system.cpu.decode.unblockCycles                 14387                       # Number of cycles decode is unblocking (Cycle)
system.cpu.decode.squashCycles                   6935                       # Number of cycles decode is squashing (Cycle)
system.cpu.decode.branchResolved                55690                       # Number of times decode resolved a branch (Count)
system.cpu.decode.branchMispred                   864                       # Number of times decode detected a branch misprediction (Count)
system.cpu.decode.decodedInsts                1167533                       # Number of instructions handled by decode (Count)
system.cpu.decode.squashedInsts                  4448                       # Number of squashed instructions handled by decode (Count)
system.cpu.dtb_walker_cache.blockedCycles::no_mshrs            0                       # number of cycles access was blocked (Cycle)
system.cpu.dtb_walker_cache.blockedCycles::no_targets            0                       # number of cycles access was blocked (Cycle)
system.cpu.dtb_walker_cache.blockedCauses::no_mshrs            0                       # number of times access was blocked (Count)
system.cpu.dtb_walker_cache.blockedCauses::no_targets            0                       # number of times access was blocked (Count)
system.cpu.dtb_walker_cache.avgBlocked::no_mshrs          nan                       # average number of cycles each access was blocked ((Cycle/Count))
system.cpu.dtb_walker_cache.avgBlocked::no_targets          nan                       # average number of cycles each access was blocked ((Cycle/Count))
system.cpu.dtb_walker_cache.replacements            0                       # number of replacements (Count)
system.cpu.dtb_walker_cache.power_state.pwrStateResidencyTicks::UNDEFINED    269197000                       # Cumulative time (in ticks) in various power states (Tick)
system.cpu.dtb_walker_cache.tags.tagsInUse            0                       # Average ticks per tags in use ((Tick/Count))
system.cpu.dtb_walker_cache.tags.totalRefs            0                       # Total number of references to valid blocks. (Count)
system.cpu.dtb_walker_cache.tags.sampledRefs            0                       # Sample count of references to valid blocks. (Count)
system.cpu.dtb_walker_cache.tags.avgRefs          nan                       # Average number of references to valid blocks. ((Count/Count))
system.cpu.dtb_walker_cache.tags.warmupTick            0                       # The tick when the warmup percentage was hit. (Tick)
system.cpu.dtb_walker_cache.tags.tagAccesses            0                       # Number of tag accesses (Count)
system.cpu.dtb_walker_cache.tags.dataAccesses            0                       # Number of data accesses (Count)
system.cpu.dtb_walker_cache.tags.power_state.pwrStateResidencyTicks::UNDEFINED    269197000                       # Cumulative time (in ticks) in various power states (Tick)
system.cpu.fetch.icacheStallCycles             125371                       # Number of cycles fetch is stalled on an Icache miss (Cycle)
system.cpu.fetch.insts                         654178                       # Number of instructions fetch has processed (Count)
system.cpu.fetch.branches                      141178                       # Number of branches that fetch encountered (Count)
system.cpu.fetch.predictedBranches              66950                       # Number of branches that fetch has predicted taken (Count)
system.cpu.fetch.cycles                        336241                       # Number of cycles fetch has run and was not squashing or blocked (Cycle)
system.cpu.fetch.squashCycles                   15574                       # Number of cycles fetch has spent squashing (Cycle)
system.cpu.fetch.miscStallCycles                  544                       # Number of cycles fetch has spent waiting on interrupts, or bad addresses, or out of MSHRs (Cycle)
system.cpu.fetch.pendingTrapStallCycles          3871                       # Number of stall cycles due to pending traps (Cycle)
system.cpu.fetch.pendingQuiesceStallCycles           16                       # Number of stall cycles due to pending quiesce instructions (Cycle)
system.cpu.fetch.cacheLines                     87750                       # Number of cache lines fetched (Count)
system.cpu.fetch.icacheSquashes                  2529                       # Number of outstanding Icache misses that were squashed (Count)
system.cpu.fetch.nisnDist::samples             473830                       # Number of instructions fetched each cycle (Total)
system.cpu.fetch.nisnDist::mean              2.610721                       # Number of instructions fetched each cycle (Total)
system.cpu.fetch.nisnDist::stdev             3.443724                       # Number of instructions fetched each cycle (Total)
system.cpu.fetch.nisnDist::underflows               0      0.00%      0.00% # Number of instructions fetched each cycle (Total)
system.cpu.fetch.nisnDist::0                   277469     58.56%     58.56% # Number of instructions fetched each cycle (Total)
system.cpu.fetch.nisnDist::1                    10062      2.12%     60.68% # Number of instructions fetched each cycle (Total)
system.cpu.fetch.nisnDist::2                     8694      1.83%     62.52% # Number of instructions fetched each cycle (Total)
system.cpu.fetch.nisnDist::3                    17995      3.80%     66.31% # Number of instructions fetched each cycle (Total)
system.cpu.fetch.nisnDist::4                    11578      2.44%     68.76% # Number of instructions fetched each cycle (Total)
system.cpu.fetch.nisnDist::5                    14778      3.12%     71.88% # Number of instructions fetched each cycle (Total)
system.cpu.fetch.nisnDist::6                     9265      1.96%     73.83% # Number of instructions fetched each cycle (Total)
system.cpu.fetch.nisnDist::7                    12101      2.55%     76.39% # Number of instructions fetched each cycle (Total)
system.cpu.fetch.nisnDist::8                   111888     23.61%    100.00% # Number of instructions fetched each cycle (Total)
system.cpu.fetch.nisnDist::overflows                0      0.00%    100.00% # Number of instructions fetched each cycle (Total)
system.cpu.fetch.nisnDist::min_value                0                       # Number of instructions fetched each cycle (Total)
system.cpu.fetch.nisnDist::max_value                8                       # Number of instructions fetched each cycle (Total)
system.cpu.fetch.nisnDist::total               473830                       # Number of instructions fetched each cycle (Total)
system.cpu.fetch.branchRate                  0.262220                       # Number of branch fetches per cycle (Ratio)
system.cpu.fetch.rate                        1.215052                       # Number of inst fetches per cycle ((Count/Cycle))
system.cpu.icache.demandHits::cpu.inst          85996                       # number of demand (read+write) hits (Count)
system.cpu.icache.demandHits::total             85996                       # number of demand (read+write) hits (Count)
system.cpu.icache.overallHits::cpu.inst         85996                       # number of overall hits (Count)
system.cpu.icache.overallHits::total            85996                       # number of overall hits (Count)
system.cpu.icache.demandMisses::cpu.inst         1754                       # number of demand (read+write) misses (Count)
system.cpu.icache.demandMisses::total            1754                       # number of demand (read+write) misses (Count)
system.cpu.icache.overallMisses::cpu.inst         1754                       # number of overall misses (Count)
system.cpu.icache.overallMisses::total           1754                       # number of overall misses (Count)
system.cpu.icache.demandMissLatency::cpu.inst     91662500                       # number of demand (read+write) miss ticks (Tick)
system.cpu.icache.demandMissLatency::total     91662500                       # number of demand (read+write) miss ticks (Tick)
system.cpu.icache.overallMissLatency::cpu.inst     91662500                       # number of overall miss ticks (Tick)
system.cpu.icache.overallMissLatency::total     91662500                       # number of overall miss ticks (Tick)
system.cpu.icache.demandAccesses::cpu.inst        87750                       # number of demand (read+write) accesses (Count)
system.cpu.icache.demandAccesses::total         87750                       # number of demand (read+write) accesses (Count)
system.cpu.icache.overallAccesses::cpu.inst        87750                       # number of overall (read+write) accesses (Count)
system.cpu.icache.overallAccesses::total        87750                       # number of overall (read+write) accesses (Count)
system.cpu.icache.demandMissRate::cpu.inst     0.019989                       # miss rate for demand accesses (Ratio)
system.cpu.icache.demandMissRate::total      0.019989                       # miss rate for demand accesses (Ratio)
system.cpu.icache.overallMissRate::cpu.inst     0.019989                       # miss rate for overall accesses (Ratio)
system.cpu.icache.overallMissRate::total     0.019989                       # miss rate for overall accesses (Ratio)
system.cpu.icache.demandAvgMissLatency::cpu.inst 52259.122007                       # average overall miss latency ((Cycle/Count))
system.cpu.icache.demandAvgMissLatency::total 52259.122007                       # average overall miss latency ((Cycle/Count))
system.cpu.icache.overallAvgMissLatency::cpu.inst 52259.122007                       # average overall miss latency ((Cycle/Count))
system.cpu.icache.overallAvgMissLatency::total 52259.122007                       # average overall miss latency ((Cycle/Count))
system.cpu.icache.blockedCycles::no_mshrs           13                       # number of cycles access was blocked (Cycle)
system.cpu.icache.blockedCycles::no_targets            0                       # number of cycles access was blocked (Cycle)
system.cpu.icache.blockedCauses::no_mshrs            1                       # number of times access was blocked (Count)
system.cpu.icache.blockedCauses::no_targets            0                       # number of times access was blocked (Count)
system.cpu.icache.avgBlocked::no_mshrs             13                       # average number of cycles each access was blocked ((Cycle/Count))
system.cpu.icache.avgBlocked::no_targets          nan                       # average number of cycles each access was blocked ((Cycle/Count))
system.cpu.icache.writebacks::writebacks          299                       # number of writebacks (Count)
system.cpu.icache.writebacks::total               299                       # number of writebacks (Count)
system.cpu.icache.demandMshrHits::cpu.inst          444                       # number of demand (read+write) MSHR hits (Count)
system.cpu.icache.demandMshrHits::total           444                       # number of demand (read+write) MSHR hits (Count)
system.cpu.icache.overallMshrHits::cpu.inst          444                       # number of overall MSHR hits (Count)
system.cpu.icache.overallMshrHits::total          444                       # number of overall MSHR hits (Count)
system.cpu.icache.demandMshrMisses::cpu.inst         1310                       # number of demand (read+write) MSHR misses (Count)
system.cpu.icache.demandMshrMisses::total         1310                       # number of demand (read+write) MSHR misses (Count)
system.cpu.icache.overallMshrMisses::cpu.inst         1310                       # number of overall MSHR misses (Count)
system.cpu.icache.overallMshrMisses::total         1310                       # number of overall MSHR misses (Count)
system.cpu.icache.demandMshrMissLatency::cpu.inst     70904000                       # number of demand (read+write) MSHR miss ticks (Tick)
system.cpu.icache.demandMshrMissLatency::total     70904000                       # number of demand (read+write) MSHR miss ticks (Tick)
system.cpu.icache.overallMshrMissLatency::cpu.inst     70904000                       # number of overall MSHR miss ticks (Tick)
system.cpu.icache.overallMshrMissLatency::total     70904000                       # number of overall MSHR miss ticks (Tick)
system.cpu.icache.demandMshrMissRate::cpu.inst     0.014929                       # mshr miss ratio for demand accesses (Ratio)
system.cpu.icache.demandMshrMissRate::total     0.014929                       # mshr miss ratio for demand accesses (Ratio)
system.cpu.icache.overallMshrMissRate::cpu.inst     0.014929                       # mshr miss ratio for overall accesses (Ratio)
system.cpu.icache.overallMshrMissRate::total     0.014929                       # mshr miss ratio for overall accesses (Ratio)
system.cpu.icache.demandAvgMshrMissLatency::cpu.inst 54125.190840                       # average overall mshr miss latency ((Cycle/Count))
system.cpu.icache.demandAvgMshrMissLatency::total 54125.190840                       # average overall mshr miss latency ((Cycle/Count))
system.cpu.icache.overallAvgMshrMissLatency::cpu.inst 54125.190840                       # average overall mshr miss latency ((Cycle/Count))
system.cpu.icache.overallAvgMshrMissLatency::total 54125.190840                       # average overall mshr miss latency ((Cycle/Count))
system.cpu.icache.replacements                    299                       # number of replacements (Count)
system.cpu.icache.ReadReq.hits::cpu.inst        85996                       # number of ReadReq hits (Count)
system.cpu.icache.ReadReq.hits::total           85996                       # number of ReadReq hits (Count)
system.cpu.icache.ReadReq.misses::cpu.inst         1754                       # number of ReadReq misses (Count)
system.cpu.icache.ReadReq.misses::total          1754                       # number of ReadReq misses (Count)
system.cpu.icache.ReadReq.missLatency::cpu.inst     91662500                       # number of ReadReq miss ticks (Tick)
system.cpu.icache.ReadReq.missLatency::total     91662500                       # number of ReadReq miss ticks (Tick)
system.cpu.icache.ReadReq.accesses::cpu.inst        87750                       # number of ReadReq accesses(hits+misses) (Count)
system.cpu.icache.ReadReq.accesses::total        87750                       # number of ReadReq accesses(hits+misses) (Count)
system.cpu.icache.ReadReq.missRate::cpu.inst     0.019989                       # miss rate for ReadReq accesses (Ratio)
system.cpu.icache.ReadReq.missRate::total     0.019989                       # miss rate for ReadReq accesses (Ratio)
system.cpu.icache.ReadReq.avgMissLatency::cpu.inst 52259.122007                       # average ReadReq miss latency ((Tick/Count))
system.cpu.icache.ReadReq.avgMissLatency::total 52259.122007                       # average ReadReq miss latency ((Tick/Count))
system.cpu.icache.ReadReq.mshrHits::cpu.inst          444                       # number of ReadReq MSHR hits (Count)
system.cpu.icache.ReadReq.mshrHits::total          444                       # number of ReadReq MSHR hits (Count)
system.cpu.icache.ReadReq.mshrMisses::cpu.inst         1310                       # number of ReadReq MSHR misses (Count)
system.cpu.icache.ReadReq.mshrMisses::total         1310                       # number of ReadReq MSHR misses (Count)
system.cpu.icache.ReadReq.mshrMissLatency::cpu.inst     70904000                       # number of ReadReq MSHR miss ticks (Tick)
system.cpu.icache.ReadReq.mshrMissLatency::total     70904000                       # number of ReadReq MSHR miss ticks (Tick)
system.cpu.icache.ReadReq.mshrMissRate::cpu.inst     0.014929                       # mshr miss rate for ReadReq accesses (Ratio)
system.cpu.icache.ReadReq.mshrMissRate::total     0.014929                       # mshr miss rate for ReadReq accesses (Ratio)
system.cpu.icache.ReadReq.avgMshrMissLatency::cpu.inst 54125.190840                       # average ReadReq mshr miss latency ((Tick/Count))
system.cpu.icache.ReadReq.avgMshrMissLatency::total 54125.190840                       # average ReadReq mshr miss latency ((Tick/Count))
system.cpu.icache.power_state.pwrStateResidencyTicks::UNDEFINED    269197000                       # Cumulative time (in ticks) in various power states (Tick)
system.cpu.icache.tags.tagsInUse           771.265347                       # Average ticks per tags in use ((Tick/Count))
system.cpu.icache.tags.totalRefs                87305                       # Total number of references to valid blocks. (Count)
system.cpu.icache.tags.sampledRefs               1309                       # Sample count of references to valid blocks. (Count)
system.cpu.icache.tags.avgRefs              66.695951                       # Average number of references to valid blocks. ((Count/Count))
system.cpu.icache.tags.warmupTick               71500                       # The tick when the warmup percentage was hit. (Tick)
system.cpu.icache.tags.occupancies::cpu.inst   771.265347                       # Average occupied blocks per tick, per requestor ((Count/Tick))
system.cpu.icache.tags.avgOccs::cpu.inst     0.753189                       # Average percentage of cache occupancy ((Ratio/Tick))
system.cpu.icache.tags.avgOccs::total        0.753189                       # Average percentage of cache occupancy ((Ratio/Tick))
system.cpu.icache.tags.occupanciesTaskId::1024         1010                       # Occupied blocks per task id (Count)
system.cpu.icache.tags.ageTaskId_1024::0           80                       # Occupied blocks per task id, per block age (Count)
system.cpu.icache.tags.ageTaskId_1024::1          129                       # Occupied blocks per task id, per block age (Count)
system.cpu.icache.tags.ageTaskId_1024::2          801                       # Occupied blocks per task id, per block age (Count)
system.cpu.icache.tags.ratioOccsTaskId::1024     0.986328                       # Ratio of occupied blocks and all blocks, per task id (Ratio)
system.cpu.icache.tags.tagAccesses             703309                       # Number of tag accesses (Count)
system.cpu.icache.tags.dataAccesses            703309                       # Number of data accesses (Count)
system.cpu.icache.tags.power_state.pwrStateResidencyTicks::UNDEFINED    269197000                       # Cumulative time (in ticks) in various power states (Tick)
system.cpu.interrupts.clk_domain.clock           8000                       # Clock period in ticks (Tick)
system.cpu.itb_walker_cache.blockedCycles::no_mshrs            0                       # number of cycles access was blocked (Cycle)
system.cpu.itb_walker_cache.blockedCycles::no_targets            0                       # number of cycles access was blocked (Cycle)
system.cpu.itb_walker_cache.blockedCauses::no_mshrs            0                       # number of times access was blocked (Count)
system.cpu.itb_walker_cache.blockedCauses::no_targets            0                       # number of times access was blocked (Count)
system.cpu.itb_walker_cache.avgBlocked::no_mshrs          nan                       # average number of cycles each access was blocked ((Cycle/Count))
system.cpu.itb_walker_cache.avgBlocked::no_targets          nan                       # average number of cycles each access was blocked ((Cycle/Count))
system.cpu.itb_walker_cache.replacements            0                       # number of replacements (Count)
system.cpu.itb_walker_cache.power_state.pwrStateResidencyTicks::UNDEFINED    269197000                       # Cumulative time (in ticks) in various power states (Tick)
system.cpu.itb_walker_cache.tags.tagsInUse            0                       # Average ticks per tags in use ((Tick/Count))
system.cpu.itb_walker_cache.tags.totalRefs            0                       # Total number of references to valid blocks. (Count)
system.cpu.itb_walker_cache.tags.sampledRefs            0                       # Sample count of references to valid blocks. (Count)
system.cpu.itb_walker_cache.tags.avgRefs          nan                       # Average number of references to valid blocks. ((Count/Count))
system.cpu.itb_walker_cache.tags.warmupTick            0                       # The tick when the warmup percentage was hit. (Tick)
system.cpu.itb_walker_cache.tags.tagAccesses            0                       # Number of tag accesses (Count)
system.cpu.itb_walker_cache.tags.dataAccesses            0                       # Number of data accesses (Count)
system.cpu.itb_walker_cache.tags.power_state.pwrStateResidencyTicks::UNDEFINED    269197000                       # Cumulative time (in ticks) in various power states (Tick)
system.cpu.lsq0.forwLoads                       20577                       # Number of loads that had data forwarded from stores (Count)
system.cpu.lsq0.squashedLoads                   40108                       # Number of loads squashed (Count)
system.cpu.lsq0.ignoredResponses                   47                       # Number of memory responses ignored because the instruction is squashed (Count)
system.cpu.lsq0.memOrderViolation                 199                       # Number of memory ordering violations (Count)
system.cpu.lsq0.squashedStores                   9062                       # Number of stores squashed (Count)
system.cpu.lsq0.rescheduledLoads                   54                       # Number of loads that were rescheduled (Count)
system.cpu.lsq0.blockedByCache                    276                       # Number of times an access to memory failed due to the cache being blocked (Count)
system.cpu.mmu.dtb.rdAccesses                  140688                       # TLB accesses on read requests (Count)
system.cpu.mmu.dtb.wrAccesses                   55847                       # TLB accesses on write requests (Count)
system.cpu.mmu.dtb.rdMisses                       587                       # TLB misses on read requests (Count)
system.cpu.mmu.dtb.wrMisses                       133                       # TLB misses on write requests (Count)
system.cpu.mmu.dtb.walker.power_state.pwrStateResidencyTicks::UNDEFINED    269197000                       # Cumulative time (in ticks) in various power states (Tick)
system.cpu.mmu.itb.rdAccesses                       0                       # TLB accesses on read requests (Count)
system.cpu.mmu.itb.wrAccesses                   88331                       # TLB accesses on write requests (Count)
system.cpu.mmu.itb.rdMisses                         0                       # TLB misses on read requests (Count)
system.cpu.mmu.itb.wrMisses                       746                       # TLB misses on write requests (Count)
system.cpu.mmu.itb.walker.power_state.pwrStateResidencyTicks::UNDEFINED    269197000                       # Cumulative time (in ticks) in various power states (Tick)
system.cpu.power_state.pwrStateResidencyTicks::ON    269197000                       # Cumulative time (in ticks) in various power states (Tick)
system.cpu.rename.squashCycles                   6935                       # Number of cycles rename is squashing (Cycle)
system.cpu.rename.idleCycles                   121461                       # Number of cycles rename is idle (Cycle)
system.cpu.rename.blockCycles                  141816                       # Number of cycles rename is blocking (Cycle)
system.cpu.rename.serializeStallCycles           2588                       # count of cycles rename stalled for serializing inst (Cycle)
system.cpu.rename.runCycles                    165822                       # Number of cycles rename is running (Cycle)
system.cpu.rename.unblockCycles                 35208                       # Number of cycles rename is unblocking (Cycle)
system.cpu.rename.renamedInsts                1141046                       # Number of instructions processed by rename (Count)
system.cpu.rename.ROBFullEvents                  2665                       # Number of times rename has blocked due to ROB full (Count)
[...]
system.mem_ctrls.dram.bwWrite::total        146450369                       # Write bandwidth from this memory ((Byte/Second))
system.mem_ctrls.dram.bwTotal::writebacks    146450369                       # Total bandwidth to/from this memory ((Byte/Second))
system.mem_ctrls.dram.bwTotal::cpu.inst     311207034                       # Total bandwidth to/from this memory ((Byte/Second))
system.mem_ctrls.dram.bwTotal::cpu.data     800959892                       # Total bandwidth to/from this memory ((Byte/Second))
system.mem_ctrls.dram.bwTotal::total       1258617295                       # Total bandwidth to/from this memory ((Byte/Second))
system.mem_ctrls.dram.readBursts                 4664                       # Number of DRAM read bursts (Count)
system.mem_ctrls.dram.writeBursts                 887                       # Number of DRAM write bursts (Count)
system.mem_ctrls.dram.perBankRdBursts::0          330                       # Per bank write bursts (Count)
system.mem_ctrls.dram.perBankRdBursts::1          390                       # Per bank write bursts (Count)
system.mem_ctrls.dram.perBankRdBursts::2          269                       # Per bank write bursts (Count)
system.mem_ctrls.dram.perBankRdBursts::3          299                       # Per bank write bursts (Count)
system.mem_ctrls.dram.perBankRdBursts::4          285                       # Per bank write bursts (Count)
system.mem_ctrls.dram.perBankRdBursts::5          314                       # Per bank write bursts (Count)
system.mem_ctrls.dram.perBankRdBursts::6          470                       # Per bank write bursts (Count)
system.mem_ctrls.dram.perBankRdBursts::7          247                       # Per bank write bursts (Count)
system.mem_ctrls.dram.perBankRdBursts::8          204                       # Per bank write bursts (Count)
system.mem_ctrls.dram.perBankRdBursts::9          237                       # Per bank write bursts (Count)
system.mem_ctrls.dram.perBankRdBursts::10          258                       # Per bank write bursts (Count)
system.mem_ctrls.dram.perBankRdBursts::11          123                       # Per bank write bursts (Count)
system.mem_ctrls.dram.perBankRdBursts::12          420                       # Per bank write bursts (Count)
system.mem_ctrls.dram.perBankRdBursts::13          364                       # Per bank write bursts (Count)
system.mem_ctrls.dram.perBankRdBursts::14          288                       # Per bank write bursts (Count)
system.mem_ctrls.dram.perBankRdBursts::15          166                       # Per bank write bursts (Count)
system.mem_ctrls.dram.perBankWrBursts::0            6                       # Per bank write bursts (Count)
system.mem_ctrls.dram.perBankWrBursts::1          117                       # Per bank write bursts (Count)
system.mem_ctrls.dram.perBankWrBursts::2           29                       # Per bank write bursts (Count)
system.mem_ctrls.dram.perBankWrBursts::3           51                       # Per bank write bursts (Count)
system.mem_ctrls.dram.perBankWrBursts::4           69                       # Per bank write bursts (Count)
system.mem_ctrls.dram.perBankWrBursts::5          149                       # Per bank write bursts (Count)
system.mem_ctrls.dram.perBankWrBursts::6          101                       # Per bank write bursts (Count)
system.mem_ctrls.dram.perBankWrBursts::7           74                       # Per bank write bursts (Count)
system.mem_ctrls.dram.perBankWrBursts::8           65                       # Per bank write bursts (Count)
system.mem_ctrls.dram.perBankWrBursts::9            5                       # Per bank write bursts (Count)
system.mem_ctrls.dram.perBankWrBursts::10           11                       # Per bank write bursts (Count)
system.mem_ctrls.dram.perBankWrBursts::11            8                       # Per bank write bursts (Count)
system.mem_ctrls.dram.perBankWrBursts::12          118                       # Per bank write bursts (Count)
system.mem_ctrls.dram.perBankWrBursts::13           37                       # Per bank write bursts (Count)
system.mem_ctrls.dram.perBankWrBursts::14           27                       # Per bank write bursts (Count)
system.mem_ctrls.dram.perBankWrBursts::15           20                       # Per bank write bursts (Count)
system.mem_ctrls.dram.totQLat                42559250                       # Total ticks spent queuing (Tick)
system.mem_ctrls.dram.totBusLat              23320000                       # Total ticks spent in databus transfers (Tick)
system.mem_ctrls.dram.totMemAccLat          130009250                       # Total ticks spent from burst creation until serviced by the DRAM (Tick)
system.mem_ctrls.dram.avgQLat                 9125.05                       # Average queueing delay per DRAM burst ((Tick/Count))
system.mem_ctrls.dram.avgBusLat               5000.00                       # Average bus latency per DRAM burst ((Tick/Count))
system.mem_ctrls.dram.avgMemAccLat           27875.05                       # Average memory access latency per DRAM burst ((Tick/Count))
system.mem_ctrls.dram.readRowHits                3855                       # Number of row buffer hits during reads (Count)
system.mem_ctrls.dram.writeRowHits                712                       # Number of row buffer hits during writes (Count)
system.mem_ctrls.dram.readRowHitRate            82.65                       # Row buffer hit rate for reads (Ratio)
system.mem_ctrls.dram.writeRowHitRate           80.27                       # Row buffer hit rate for writes (Ratio)
system.mem_ctrls.dram.bytesPerActivate::samples          969                       # Bytes accessed per row activation (Byte)
system.mem_ctrls.dram.bytesPerActivate::mean   361.609907                       # Bytes accessed per row activation (Byte)
system.mem_ctrls.dram.bytesPerActivate::gmean   216.648116                       # Bytes accessed per row activation (Byte)
system.mem_ctrls.dram.bytesPerActivate::stdev   349.964981                       # Bytes accessed per row activation (Byte)
system.mem_ctrls.dram.bytesPerActivate::0-127          303     31.27%     31.27% # Bytes accessed per row activation (Byte)
system.mem_ctrls.dram.bytesPerActivate::128-255          211     21.78%     53.04% # Bytes accessed per row activation (Byte)
system.mem_ctrls.dram.bytesPerActivate::256-383          112     11.56%     64.60% # Bytes accessed per row activation (Byte)
system.mem_ctrls.dram.bytesPerActivate::384-511           70      7.22%     71.83% # Bytes accessed per row activation (Byte)
system.mem_ctrls.dram.bytesPerActivate::512-639           43      4.44%     76.26% # Bytes accessed per row activation (Byte)
system.mem_ctrls.dram.bytesPerActivate::640-767           32      3.30%     79.57% # Bytes accessed per row activation (Byte)
system.mem_ctrls.dram.bytesPerActivate::768-895           29      2.99%     82.56% # Bytes accessed per row activation (Byte)
system.mem_ctrls.dram.bytesPerActivate::896-1023           21      2.17%     84.73% # Bytes accessed per row activation (Byte)
system.mem_ctrls.dram.bytesPerActivate::1024-1151          148     15.27%    100.00% # Bytes accessed per row activation (Byte)
system.mem_ctrls.dram.bytesPerActivate::total          969                       # Bytes accessed per row activation (Byte)
system.mem_ctrls.dram.bytesRead                298496                       # Total number of bytes read from DRAM (Byte)
system.mem_ctrls.dram.bytesWritten              56768                       # Total number of bytes written to DRAM (Byte)
system.mem_ctrls.dram.avgRdBW             1108.838509                       # Average DRAM read bandwidth in MiBytes/s ((Byte/Second))
system.mem_ctrls.dram.avgWrBW              210.879022                       # Average DRAM write bandwidth in MiBytes/s ((Byte/Second))
system.mem_ctrls.dram.peakBW                 12800.00                       # Theoretical peak bandwidth in MiByte/s ((Byte/Second))
system.mem_ctrls.dram.busUtil                   10.31                       # Data bus utilization in percentage (Ratio)
system.mem_ctrls.dram.busUtilRead                8.66                       # Data bus utilization in percentage for reads (Ratio)
system.mem_ctrls.dram.busUtilWrite               1.65                       # Data bus utilization in percentage for writes (Ratio)
system.mem_ctrls.dram.pageHitRate               82.27                       # Row buffer hit rate, read and write combined (Ratio)
system.mem_ctrls.dram.power_state.pwrStateResidencyTicks::UNDEFINED    269197000                       # Cumulative time (in ticks) in various power states (Tick)
system.mem_ctrls.dram.rank0.actEnergy         4376820                       # Energy for activate commands per rank (pJ) (Joule)
system.mem_ctrls.dram.rank0.preEnergy         2295975                       # Energy for precharge commands per rank (pJ) (Joule)
system.mem_ctrls.dram.rank0.readEnergy       18592560                       # Energy for read commands per rank (pJ) (Joule)
system.mem_ctrls.dram.rank0.writeEnergy       3111120                       # Energy for write commands per rank (pJ) (Joule)
system.mem_ctrls.dram.rank0.refreshEnergy 20897760.000000                       # Energy for refresh commands per rank (pJ) (Joule)
system.mem_ctrls.dram.rank0.actBackEnergy    103317630                       # Energy for active background per rank (pJ) (Joule)
system.mem_ctrls.dram.rank0.preBackEnergy     16367520                       # Energy for precharge background per rank (pJ) (Joule)
system.mem_ctrls.dram.rank0.actPowerDownEnergy            0                       # Energy for active power-down per rank (pJ) (Joule)
system.mem_ctrls.dram.rank0.prePowerDownEnergy            0                       # Energy for precharge power-down per rank (pJ) (Joule)
system.mem_ctrls.dram.rank0.selfRefreshEnergy            0                       # Energy for self refresh per rank (pJ) (Joule)
system.mem_ctrls.dram.rank0.totalEnergy     168959385                       # Total energy per rank (pJ) (Joule)
system.mem_ctrls.dram.rank0.averagePower   627.642154                       # Core power per rank (mW) (Watt)
system.mem_ctrls.dram.rank0.totalIdleTime            0                       # Total Idle time Per DRAM Rank (Tick)
system.mem_ctrls.dram.rank0.pwrStateTime::IDLE     41422000                       # Time in different power states (Tick)
system.mem_ctrls.dram.rank0.pwrStateTime::REF      8840000                       # Time in different power states (Tick)
system.mem_ctrls.dram.rank0.pwrStateTime::SREF            0                       # Time in different power states (Tick)
system.mem_ctrls.dram.rank0.pwrStateTime::PRE_PDN            0                       # Time in different power states (Tick)
system.mem_ctrls.dram.rank0.pwrStateTime::ACT    218935000                       # Time in different power states (Tick)
system.mem_ctrls.dram.rank0.pwrStateTime::ACT_PDN            0                       # Time in different power states (Tick)
system.mem_ctrls.dram.rank1.actEnergy         2648940                       # Energy for activate commands per rank (pJ) (Joule)
system.mem_ctrls.dram.rank1.preEnergy         1381380                       # Energy for precharge commands per rank (pJ) (Joule)
system.mem_ctrls.dram.rank1.readEnergy       14708400                       # Energy for read commands per rank (pJ) (Joule)
system.mem_ctrls.dram.rank1.writeEnergy       1519020                       # Energy for write commands per rank (pJ) (Joule)
system.mem_ctrls.dram.rank1.refreshEnergy 20897760.000000                       # Energy for refresh commands per rank (pJ) (Joule)
system.mem_ctrls.dram.rank1.actBackEnergy     96860670                       # Energy for active background per rank (pJ) (Joule)
system.mem_ctrls.dram.rank1.preBackEnergy     21804960                       # Energy for precharge background per rank (pJ) (Joule)
system.mem_ctrls.dram.rank1.actPowerDownEnergy            0                       # Energy for active power-down per rank (pJ) (Joule)
system.mem_ctrls.dram.rank1.prePowerDownEnergy            0                       # Energy for precharge power-down per rank (pJ) (Joule)
system.mem_ctrls.dram.rank1.selfRefreshEnergy            0                       # Energy for self refresh per rank (pJ) (Joule)
system.mem_ctrls.dram.rank1.totalEnergy     159821130                       # Total energy per rank (pJ) (Joule)
system.mem_ctrls.dram.rank1.averagePower   593.695806                       # Core power per rank (mW) (Watt)
system.mem_ctrls.dram.rank1.totalIdleTime            0                       # Total Idle time Per DRAM Rank (Tick)
system.mem_ctrls.dram.rank1.pwrStateTime::IDLE     55812750                       # Time in different power states (Tick)
system.mem_ctrls.dram.rank1.pwrStateTime::REF      8840000                       # Time in different power states (Tick)
system.mem_ctrls.dram.rank1.pwrStateTime::SREF            0                       # Time in different power states (Tick)
system.mem_ctrls.dram.rank1.pwrStateTime::PRE_PDN            0                       # Time in different power states (Tick)
system.mem_ctrls.dram.rank1.pwrStateTime::ACT    204544250                       # Time in different power states (Tick)
system.mem_ctrls.dram.rank1.pwrStateTime::ACT_PDN            0                       # Time in different power states (Tick)
system.mem_ctrls.power_state.pwrStateResidencyTicks::UNDEFINED    269197000                       # Cumulative time (in ticks) in various power states (Tick)
system.membus.transDist::ReadResp                3997                       # Transaction distribution (Count)
system.membus.transDist::WritebackDirty           616                       # Transaction distribution (Count)
system.membus.transDist::WritebackClean           299                       # Transaction distribution (Count)
system.membus.transDist::CleanEvict              1729                       # Transaction distribution (Count)
system.membus.transDist::ReadExReq                681                       # Transaction distribution (Count)
system.membus.transDist::ReadExResp               681                       # Transaction distribution (Count)
system.membus.transDist::ReadCleanReq            1310                       # Transaction distribution (Count)
system.membus.transDist::ReadSharedReq           2688                       # Transaction distribution (Count)
system.membus.pktCount_system.cpu.icache.mem_side_port::system.mem_ctrls.port         2918                       # Packet count per connected requestor and responder (Count)
system.membus.pktCount_system.cpu.icache.mem_side_port::total         2918                       # Packet count per connected requestor and responder (Count)
system.membus.pktCount_system.cpu.dcache.mem_side_port::system.mem_ctrls.port         9083                       # Packet count per connected requestor and responder (Count)
system.membus.pktCount_system.cpu.dcache.mem_side_port::total         9083                       # Packet count per connected requestor and responder (Count)
system.membus.pktCount::total                   12001                       # Packet count per connected requestor and responder (Count)
system.membus.pktSize_system.cpu.icache.mem_side_port::system.mem_ctrls.port       102912                       # Cumulative packet size per connected requestor and responder (Byte)
system.membus.pktSize_system.cpu.icache.mem_side_port::total       102912                       # Cumulative packet size per connected requestor and responder (Byte)
system.membus.pktSize_system.cpu.dcache.mem_side_port::system.mem_ctrls.port       255040                       # Cumulative packet size per connected requestor and responder (Byte)
system.membus.pktSize_system.cpu.dcache.mem_side_port::total       255040                       # Cumulative packet size per connected requestor and responder (Byte)
system.membus.pktSize::total                   357952                       # Cumulative packet size per connected requestor and responder (Byte)
system.membus.snoops                                0                       # Total snoops (Count)
system.membus.snoopTraffic                          0                       # Total snoop traffic (Byte)
system.membus.snoopFanout::samples               4679                       # Request fanout histogram
system.membus.snoopFanout::mean              0.003633                       # Request fanout histogram
system.membus.snoopFanout::stdev             0.060173                       # Request fanout histogram
system.membus.snoopFanout::underflows               0      0.00%      0.00% # Request fanout histogram
system.membus.snoopFanout::0                     4662     99.64%     99.64% # Request fanout histogram
system.membus.snoopFanout::1                       17      0.36%    100.00% # Request fanout histogram
system.membus.snoopFanout::2                        0      0.00%    100.00% # Request fanout histogram
system.membus.snoopFanout::3                        0      0.00%    100.00% # Request fanout histogram
system.membus.snoopFanout::4                        0      0.00%    100.00% # Request fanout histogram
system.membus.snoopFanout::overflows                0      0.00%    100.00% # Request fanout histogram
system.membus.snoopFanout::min_value                0                       # Request fanout histogram
system.membus.snoopFanout::max_value                1                       # Request fanout histogram
system.membus.snoopFanout::total                 4679                       # Request fanout histogram
system.membus.power_state.pwrStateResidencyTicks::UNDEFINED    269197000                       # Cumulative time (in ticks) in various power states (Tick)
system.membus.reqLayer2.occupancy             5491500                       # Layer occupancy (ticks) (Tick)
system.membus.reqLayer2.utilization               0.0                       # Layer utilization (Ratio)
system.membus.respLayer1.occupancy            3558250                       # Layer occupancy (ticks) (Tick)
system.membus.respLayer1.utilization              0.0                       # Layer utilization (Ratio)
system.membus.respLayer2.occupancy            9162000                       # Layer occupancy (ticks) (Tick)
system.membus.respLayer2.utilization              0.0                       # Layer utilization (Ratio)
system.membus.snoop_filter.totRequests           7323                       # Total number of requests made to the snoop filter. (Count)
system.membus.snoop_filter.hitSingleRequests         2655                       # Number of requests hitting in the snoop filter with a single holder of the requested data. (Count)
system.membus.snoop_filter.hitMultiRequests            6                       # Number of requests hitting in the snoop filter with multiple (>1) holders of the requested data. (Count)
system.membus.snoop_filter.totSnoops                0                       # Total number of snoops made to the snoop filter. (Count)
system.membus.snoop_filter.hitSingleSnoops            0                       # Number of snoops hitting in the snoop filter with a single holder of the requested data. (Count)
system.membus.snoop_filter.hitMultiSnoops            0                       # Number of snoops hitting in the snoop filter with multiple (>1) holders of the requested data. (Count)
system.voltage_domain.voltage                       1                       # Voltage in Volts (Volt)
system.workload.inst.arm                            0                       # number of arm instructions executed (Count)
system.workload.inst.quiesce                        0                       # number of quiesce instructions executed (Count)

---------- End Simulation Statistics   ----------
